Version 4
SHEET 1 1712 680
WIRE -704 -656 -784 -656
WIRE -576 -656 -624 -656
WIRE -464 -656 -576 -656
WIRE 128 -656 -32 -656
WIRE 1200 -656 1088 -656
WIRE -576 -608 -576 -656
WIRE -464 -592 -464 -656
WIRE 128 -592 -464 -592
WIRE 496 -592 448 -592
WIRE 960 -592 912 -592
WIRE 1200 -592 960 -592
WIRE 960 -576 960 -592
WIRE 496 -560 496 -592
WIRE -576 -528 -720 -528
WIRE 128 -528 32 -528
WIRE 448 -528 448 -592
WIRE 448 -528 352 -528
WIRE 1200 -528 1120 -528
WIRE 1472 -528 1424 -528
WIRE 1648 -496 1648 -576
WIRE -576 -464 -624 -464
WIRE 128 -464 96 -464
WIRE 416 -464 352 -464
WIRE 960 -464 960 -496
WIRE 1200 -464 1120 -464
WIRE 1504 -464 1424 -464
WIRE -576 -448 -576 -464
WIRE 416 -448 416 -464
WIRE 544 -448 416 -448
WIRE 624 -448 544 -448
WIRE -720 -432 -720 -448
WIRE -624 -432 -624 -464
WIRE -624 -432 -720 -432
WIRE -464 -416 -464 -592
WIRE 544 -384 544 -448
WIRE 1648 -384 1648 -416
WIRE 1648 -384 1600 -384
WIRE 960 -336 960 -384
WIRE 32 -320 32 -528
WIRE 96 -320 96 -464
WIRE 1504 -288 1504 -464
WIRE 1600 -288 1600 -384
WIRE 1600 -288 1504 -288
WIRE -112 -96 -288 -96
WIRE 288 -96 -112 -96
WIRE 752 -96 704 -96
WIRE -288 -80 -288 -96
WIRE 752 -48 752 -96
WIRE -48 -32 -64 -32
WIRE -64 -16 -64 -32
WIRE -64 -16 -112 -16
WIRE 80 0 32 0
WIRE 32 16 32 0
WIRE -48 48 -160 48
WIRE 752 48 752 32
WIRE 928 48 752 48
WIRE 80 64 80 0
WIRE 96 64 80 64
WIRE 352 64 320 64
WIRE 752 80 752 48
WIRE -288 96 -288 48
WIRE -224 96 -288 96
WIRE -64 96 -96 96
WIRE 96 128 -32 128
WIRE 368 128 320 128
WIRE 528 128 448 128
WIRE 928 128 928 48
WIRE 928 128 752 128
WIRE -288 176 -288 96
WIRE 752 176 752 128
WIRE 448 192 448 128
WIRE 448 192 320 192
WIRE -224 224 -224 96
WIRE -64 224 -64 96
WIRE -64 224 -224 224
WIRE 96 256 64 256
WIRE 368 256 320 256
WIRE -64 272 -160 272
WIRE -32 272 -32 128
WIRE -32 272 -64 272
WIRE -64 320 -64 272
WIRE 208 352 192 352
WIRE -288 400 -288 256
WIRE -64 400 -64 384
WIRE -64 400 -288 400
WIRE -64 416 -64 400
WIRE 192 576 192 352
FLAG 32 16 0
FLAG -64 416 0
FLAG -64 320 vc
FLAG 752 80 0
FLAG 704 -96 vcc
FLAG 352 64 vcc
FLAG 64 256 vcc
FLAG 368 320 0
FLAG 528 128 vc
FLAG 288 -96 vcc
FLAG -160 144 cole
FLAG 208 352 cole
FLAG 192 576 vc
FLAG 752 256 -vcc
FLAG 32 -320 vcc
FLAG -576 -448 0
FLAG -784 -656 vcc
FLAG 624 -528 vcc
FLAG -464 -416 vref
FLAG -160 272 vc
FLAG -32 -656 vc
FLAG 544 -384 clock
FLAG 1648 -576 vcc
FLAG 496 -560 0
FLAG 96 -320 0
FLAG 960 -336 0
FLAG 832 -592 vcc
FLAG 1088 -656 vc
FLAG 1120 -464 -vcc
FLAG 1472 -528 -vcc
FLAG 1120 -528 0
SYMBOL Misc\\NE555 208 160 R0
SYMATTR InstName U1
SYMBOL pnp -96 144 R180
SYMATTR InstName Q1
SYMATTR Value 2N5771
SYMBOL res -128 -112 R0
SYMATTR InstName R1
SYMATTR Value 250
SYMBOL res -304 160 R0
SYMATTR InstName R2
SYMATTR Value 2k
SYMBOL cap -80 320 R0
SYMATTR InstName C1
SYMATTR Value 470p
SYMBOL voltage 752 -64 R0
WINDOW 123 0 0 Left 2
WINDOW 39 0 0 Left 2
SYMATTR InstName V1
SYMATTR Value 5
SYMBOL cap 352 256 R0
SYMATTR InstName C2
SYMATTR Value 100n
SYMBOL res 464 112 R90
WINDOW 0 0 56 VBottom 2
WINDOW 3 32 56 VTop 2
SYMATTR InstName R3
SYMATTR Value 150
SYMBOL diode -304 -80 R0
SYMATTR InstName D1
SYMATTR Value 1N4148
SYMBOL diode -304 -16 R0
SYMATTR InstName D2
SYMATTR Value 1N4148
SYMBOL voltage 752 160 R0
SYMATTR InstName V2
SYMATTR Value 5
SYMBOL Misc\\comp311 240 -560 R0
WINDOW 3 0 -116 Center 2
SYMATTR Value LM311
SYMATTR InstName U2
SYMBOL res -592 -624 R0
SYMATTR InstName R4
SYMATTR Value 2k
SYMBOL res -608 -672 R90
WINDOW 0 0 56 VBottom 2
WINDOW 3 32 56 VTop 2
SYMATTR InstName R6
SYMATTR Value 10k
SYMBOL res 608 -544 R0
SYMATTR InstName R7
SYMATTR Value 10k
SYMBOL res -736 -544 R0
SYMATTR InstName R5
SYMATTR Value 5k
SYMBOL Misc\\comp311 1312 -560 R0
WINDOW 3 0 -116 Center 2
SYMATTR Value LM311
SYMATTR InstName U3
SYMBOL res 1632 -512 R0
SYMATTR InstName R8
SYMATTR Value 10k
SYMBOL res 928 -608 R90
WINDOW 0 0 56 VBottom 2
WINDOW 3 32 56 VTop 2
SYMATTR InstName R9
SYMATTR Value 10k
SYMBOL res 976 -480 R180
WINDOW 0 36 76 Left 2
WINDOW 3 36 40 Left 2
SYMATTR InstName R10
SYMATTR Value 2k
SYMBOL res 976 -368 R180
WINDOW 0 36 76 Left 2
WINDOW 3 36 40 Left 2
SYMATTR InstName R11
SYMATTR Value 3k
SYMBOL res -64 -48 R0
SYMATTR InstName R12
SYMATTR Value 100k
TEXT -328 440 Left 2 !.tran 0.5m
TEXT 760 -824 Left 2 !.inc LM311.MOD
